
Build Time: Dec  2 2015 18:06:56 
Executable Path: D:/ansys/ANSYSI~1/v170/fluent/ntbin/win64/fluent.exe
(cx-gui-do cx-set-file-dialog-entries "Select File" '( "C:\Users\yskj\Desktop\file-name") "Transcript Files (*.trn *.out )")
(cx-gui-do cx-activate-item "Solution Initialization*Table1*ButtonBox10*PushButton2(Initialize)")
(cx-gui-do cx-activate-item "Question*OK")

Initialize using the hybrid initialization method.

Checking case topology... 
-This case has both inlets & outlets 
-Pressure information is not available at the boundaries.
 Case will be initialized with constant pressure

	iter		scalar-0

	1		1.000000e+00
	2		6.979101e-05
	3		1.450589e-05
	4		2.102327e-05
	5		5.833444e-06
	6		9.599602e-06
	7		3.152930e-06
	8		5.205992e-06
	9		1.891992e-06
	10		3.066787e-06
hybrid initialization is done.

Warning: convergence tolerance of 1.000000e-06 not reached
during Hybrid Initialization.
(cx-gui-do cx-set-list-tree-selections "NavigationPane*List_Tree1" (list "Solution|Run Calculation"))
(cx-gui-do cx-set-integer-entry "Run Calculation*Table1*IntegerEntry10(Number of Iterations)" 100)
(cx-gui-do cx-activate-item "Run Calculation*Table1*IntegerEntry10(Number of Iterations)")
(cx-gui-do cx-activate-item "Run Calculation*Table1*PushButton22(Calculate)")

Writing Settings file "C:\Users\yskj\AppData\Local\Temp\WB_YSKJ-PC_yskj_5532_2\unsaved_project_files\dp0\FFF\Fluent\FFF.set"...
	writing rp variables ... Done.
	writing domain variables ... Done.
	writing pipe (type fluid) (mixture) ... Done.
	writing ou (type pressure-outlet) (mixture) ... Done.
	writing in (type velocity-inlet) (mixture) ... Done.
	writing wall-pipe (type wall) (mixture) ... Done.
	writing interior-pipe (type interior) (mixture) ... Done.
	writing zones map name-id ... Done.

  iter  continuity  x-velocity  y-velocity  z-velocity        Cm-1        Cd-1     time/iter
     1  1.0000e+00  4.4787e-04  1.5159e-02  1.0307e-02  5.8321e-06 -1.2123e-05  0:01:27   99
     2  1.0000e+00  1.2363e-03  1.1973e-02  9.4213e-03  7.2758e-06 -6.7090e-06  0:01:29   98
     3  1.0000e+00  1.9618e-03  1.0956e-02  1.1012e-02  4.8974e-06  3.9057e-05  0:01:10   97
     4  1.0000e+00  2.8450e-03  1.1441e-02  1.3737e-02  4.0954e-07  8.0028e-05  0:01:15   96
     5  1.0000e+00  3.8752e-03  1.2406e-02  1.7668e-02 -1.1954e-05  1.6213e-04  0:00:59   95
     6  1.5160e+00  5.4492e-03  1.5059e-02  2.4028e-02 -1.6418e-05  1.9644e-04  0:01:06   94
     7  2.3635e+00  7.7966e-03  1.8833e-02  3.4032e-02 -1.9384e-05  1.9923e-04  0:00:52   93
     8  3.6705e+00  1.1822e-02  2.4996e-02  5.1184e-02 -1.3937e-05  1.2647e-04  0:01:00   92
     9  5.6405e+00  1.8453e-02  3.4551e-02  8.0146e-02 -9.0227e-05  3.8035e-04  0:01:05   91
    10  8.6308e+00  2.7677e-02  4.6936e-02  1.1912e-01 -1.0532e-04  5.8015e-04  0:00:52   90

 reversed flow in 14 faces on pressure-outlet 7. 
    11  1.2419e+01  3.7436e-02  6.0318e-02  1.5612e-01 -5.2432e-06 -3.6338e-04  0:00:59   89

 reversed flow in 195 faces on pressure-outlet 7. 
  iter  continuity  x-velocity  y-velocity  z-velocity        Cm-1        Cd-1     time/iter
    12  1.7124e+01  4.5549e-02  7.1593e-02  1.8625e-01 -3.5753e-04  1.7209e-03  0:00:46   88

 reversed flow in 29 faces on pressure-outlet 7. 
    13  2.4753e+01  5.1311e-02  8.1403e-02  2.1502e-01 -3.3170e-04  9.0088e-04  0:00:54   87

 reversed flow in 47 faces on pressure-outlet 7. 
    14  3.5281e+01  5.5159e-02  8.0350e-02  2.2710e-01  3.2201e-04 -8.2695e-03  0:01:00   86

 reversed flow in 34 faces on pressure-outlet 7. 
    15  5.1192e+01  5.4707e-02  7.6849e-02  2.2828e-01 -1.3095e-03 -3.2680e-03  0:00:47   85

 reversed flow in 24 faces on pressure-outlet 7. 
    16  7.3975e+01  5.6918e-02  7.6699e-02  2.3616e-01 -2.2844e-03  1.3139e-02  0:00:54   84

 reversed flow in 17 faces on pressure-outlet 7. 
    17  1.0845e+02  5.5929e-02  7.1631e-02  2.3885e-01 -1.2703e-02  8.9564e-02  0:00:43   83

 reversed flow in 34 faces on pressure-outlet 7. 
    18  1.6032e+02  5.5837e-02  6.6689e-02  2.4669e-01 -2.6889e-02  2.5560e-01  0:00:50   82

 reversed flow in 15 faces on pressure-outlet 7. 
    19  2.3675e+02  5.5935e-02  6.1728e-02  2.5258e-01 -5.6398e-02  6.4285e-01  0:00:56   81

 reversed flow in 26 faces on pressure-outlet 7. 
    20  3.5097e+02  5.3835e-02  5.5884e-02  2.5667e-01 -9.8217e-02  1.0525e+00  0:00:44   80

 reversed flow in 8 faces on pressure-outlet 7. 
    21  5.1681e+02  5.2381e-02  4.9197e-02  2.6196e-01 -3.1973e-01  3.5884e+00  0:00:51   79

 reversed flow in 7 faces on pressure-outlet 7. 
    22  7.7209e+02  5.1973e-02  4.6051e-02  2.7170e-01 -2.3966e-01  2.3754e+00  0:00:40   78

 reversed flow in 21 faces on pressure-outlet 7. 
  iter  continuity  x-velocity  y-velocity  z-velocity        Cm-1        Cd-1     time/iter
    23  1.1795e+03  5.0067e-02  4.1037e-02  2.7420e-01 -1.1694e+00  1.3159e+01  0:00:47   77
    24  1.7667e+03  4.9703e-02  3.9128e-02  2.7713e-01 -2.0917e+00  2.2568e+01  0:00:52   76
    25  2.5985e+03  5.0550e-02  3.7935e-02  2.8239e-01  1.7323e+00 -8.9477e+00  0:00:41   75

 reversed flow in 2 faces on pressure-outlet 7. 
    26  3.7983e+03  5.1584e-02  3.7070e-02  2.9010e-01 -1.5794e+01  1.8705e+02  0:00:47   74

 reversed flow in 285 faces on pressure-outlet 7. 
    27  5.5267e+03  5.1684e-02  3.4728e-02  2.8878e-01 -2.9685e+01  3.2185e+02  0:00:37   73
    28  8.0240e+03  5.1061e-02  3.4667e-02  2.8921e-01 -1.9810e+01  2.4724e+02  0:00:44   72

 reversed flow in 272 faces on pressure-outlet 7. 
    29  1.1736e+04  5.3013e-02  3.4394e-02  2.9645e-01 -1.4660e+02  1.7614e+03  0:00:49   71

 reversed flow in 8 faces on pressure-outlet 7. 
    30  1.7119e+04  5.2723e-02  3.3720e-02  2.9749e-01 -8.4448e-02 -4.2924e+02  0:00:39   70

 reversed flow in 1 faces on pressure-outlet 7. 
    31  2.5187e+04  5.3267e-02  3.3626e-02  3.0003e-01 -1.9903e+01  1.9435e+03  0:00:44   69
    32  3.7000e+04  5.2662e-02  3.3203e-02  2.9852e-01 -4.1298e+02  2.0446e+03  0:00:35   68

 reversed flow in 282 faces on pressure-outlet 7. 
    33  5.3313e+04  5.4359e-02  3.2860e-02  3.0281e-01 -1.2830e+03  1.5095e+04  0:00:41   67
  iter  continuity  x-velocity  y-velocity  z-velocity        Cm-1        Cd-1     time/iter
    34  7.8882e+04  5.4236e-02  3.3824e-02  3.0261e-01 -3.7530e+03  1.9417e+04  0:00:45   66

 reversed flow in 341 faces on pressure-outlet 7. 
    35  1.1535e+05  5.4083e-02  3.2987e-02  3.0117e-01  3.8734e+03 -8.0070e+04  0:00:36   65

 reversed flow in 254 faces on pressure-outlet 7. 
    36  1.7057e+05  5.4873e-02  3.3518e-02  2.9897e-01  9.0321e+03 -1.1596e+05  0:00:41   64

 reversed flow in 300 faces on pressure-outlet 7. 
    37  2.5417e+05  5.5073e-02  3.2381e-02  3.0697e-01  2.3845e+03 -2.1984e+05  0:00:32   63

 reversed flow in 255 faces on pressure-outlet 7. 
    38  3.6669e+05  5.5058e-02  3.1650e-02  3.0009e-01  7.0281e+04 -4.9043e+05  0:00:38   62

 reversed flow in 151 faces on pressure-outlet 7. 
    39  5.4011e+05  5.3710e-02  3.2243e-02  3.0283e-01 -3.9757e+03  2.5301e+04  0:00:42   61

 reversed flow in 128 faces on pressure-outlet 7. 
    40  8.0154e+05  5.4590e-02  3.2309e-02  3.0489e-01  9.3557e+02  6.3891e+05  0:00:33   60

 reversed flow in 37 faces on pressure-outlet 7. 
    41  1.1702e+06  5.3690e-02  3.2339e-02  3.0046e-01 -1.0121e+06  1.2355e+07  0:00:38   59

 reversed flow in 11 faces on pressure-outlet 7. 
    42  1.7248e+06  5.5067e-02  3.2831e-02  3.0369e-01 -1.3250e+06  1.3200e+07  0:00:30   58

 reversed flow in 334 faces on pressure-outlet 7. 
    43  2.4780e+06  5.5019e-02  3.2355e-02  3.0887e-01 -2.0159e+06  3.2375e+06  0:00:35   57

 reversed flow in 363 faces on pressure-outlet 7. 
    44  3.6772e+06  5.6630e-02  3.2180e-02  3.0511e-01  5.4501e+06 -4.2563e+07  0:00:39   56

 reversed flow in 363 faces on pressure-outlet 7. 
  iter  continuity  x-velocity  y-velocity  z-velocity        Cm-1        Cd-1     time/iter
    45  5.3966e+06  5.5287e-02  3.2169e-02  3.0023e-01 -1.0160e+07  1.5339e+08  0:00:30   55

 reversed flow in 142 faces on pressure-outlet 7. 
    46  7.9073e+06  5.3821e-02  3.2067e-02  3.0370e-01  2.1179e+07 -3.4923e+08  0:00:35   54

 reversed flow in 251 faces on pressure-outlet 7. 
    47  1.1679e+07  5.3142e-02  3.2175e-02  3.0328e-01  3.6578e+07 -6.0101e+08  0:00:27   53

 reversed flow in 278 faces on pressure-outlet 7. 
    48  1.6972e+07  5.2061e-02  3.1551e-02  2.9755e-01  7.1405e+06  4.0827e+08  0:00:32   52

 reversed flow in 36 faces on pressure-outlet 7. 
    49  2.4994e+07  5.1862e-02  3.2691e-02  3.0375e-01 -1.5309e+08  3.1902e+09  0:00:35   51

 reversed flow in 24 faces on pressure-outlet 7. 
    50  3.6665e+07  5.2366e-02  3.2922e-02  3.0605e-01  7.5232e+08 -9.8148e+09  0:00:28   50

 reversed flow in 97 faces on pressure-outlet 7. 
    51  5.4208e+07  5.2786e-02  3.2977e-02  3.0289e-01  7.0668e+08 -3.7530e+09  0:00:31   49

 reversed flow in 4 faces on pressure-outlet 7. 
    52  7.8648e+07  5.2869e-02  3.2908e-02  2.9805e-01  1.9523e+07 -3.3359e+09  0:00:25   48

 reversed flow in 189 faces on pressure-outlet 7. 
    53  1.1582e+08  5.3314e-02  3.3112e-02  3.0078e-01 -2.0069e+09 -2.0212e+10  0:00:29   47

 reversed flow in 39 faces on pressure-outlet 7. 
    54  1.7067e+08  5.2124e-02  3.3743e-02  3.0179e-01 -1.8494e+09  1.8621e+10  0:00:32   46

 reversed flow in 16 faces on pressure-outlet 7. 
    55  2.5222e+08  5.1487e-02  3.3643e-02  3.0061e-01 -2.7856e+10  2.9188e+11  0:00:25   45

 reversed flow in 22 faces on pressure-outlet 7. 
  iter  continuity  x-velocity  y-velocity  z-velocity        Cm-1        Cd-1     time/iter
    56  3.7536e+08  5.0741e-02  3.3255e-02  3.0033e-01 -3.3199e+10  7.5470e+11  0:00:28   44

 reversed flow in 2 faces on pressure-outlet 7. 
    57  5.6424e+08  5.1219e-02  3.3609e-02  2.9986e-01  3.7164e+10 -8.9053e+10  0:00:22   43

 reversed flow in 8 faces on pressure-outlet 7. 
    58  8.2430e+08  5.0524e-02  3.3278e-02  3.0233e-01  9.7148e+10  2.5446e+10  0:00:26   42

 reversed flow in 4 faces on pressure-outlet 7. 
    59  1.2092e+09  5.1765e-02  3.3254e-02  3.0181e-01 -4.0724e+10  6.1806e+12  0:00:28   41

 reversed flow in 14 faces on pressure-outlet 7. 
    60  1.7955e+09  5.0360e-02  3.4369e-02  3.0038e-01  7.6282e+11 -4.4971e+12  0:00:22   40

 reversed flow in 22 faces on pressure-outlet 7. 
    61  2.6309e+09  5.1128e-02  3.4347e-02  3.0365e-01 -1.3384e+11 -2.2849e+12  0:00:25   39

 reversed flow in 7 faces on pressure-outlet 7. 
    62  3.8456e+09  5.0970e-02  3.3498e-02  2.9287e-01  1.7039e+12 -4.0999e+13  0:00:19   38

 reversed flow in 157 faces on pressure-outlet 7. 
    63  5.6881e+09  5.1378e-02  3.3848e-02  2.9773e-01 -1.6746e+13  2.6997e+14  0:00:23   37

 reversed flow in 164 faces on pressure-outlet 7. 
    64  8.4164e+09  5.1453e-02  3.3908e-02  2.9908e-01 -5.7244e+12  1.1489e+14  0:00:25   36

 reversed flow in 8 faces on pressure-outlet 7. 
    65  1.2328e+10  5.1185e-02  3.3775e-02  3.0324e-01 -5.6988e+13  8.0274e+14  0:00:19   35

 reversed flow in 38 faces on pressure-outlet 7. 
    66  1.8108e+10  5.1391e-02  3.4306e-02  3.0110e-01 -1.4971e+14  1.7206e+15  0:00:22   34

 reversed flow in 111 faces on pressure-outlet 7. 
  iter  continuity  x-velocity  y-velocity  z-velocity        Cm-1        Cd-1     time/iter
    67  2.6543e+10  4.9816e-02  3.4106e-02  2.9873e-01 -9.5073e+13  1.9687e+15  0:00:17   33

 reversed flow in 362 faces on pressure-outlet 7. 
    68  3.9228e+10  5.0799e-02  3.4220e-02  2.9397e-01 -7.5185e+14  1.1508e+16  0:00:20   32

 reversed flow in 194 faces on pressure-outlet 7. 
    69  5.7048e+10  4.9887e-02  3.4048e-02  2.9964e-01 -1.2200e+15  1.5550e+16  0:00:21   31

 reversed flow in 316 faces on pressure-outlet 7. 
    70  8.3191e+10  5.0152e-02  3.4871e-02  2.9987e-01 -2.6221e+15  1.3588e+16  0:00:17   30

 reversed flow in 40 faces on pressure-outlet 7. 
    71  1.2251e+11  5.0522e-02  3.4674e-02  2.9863e-01  3.9233e+15 -1.4345e+16  0:00:19   29

 reversed flow in 106 faces on pressure-outlet 7. 
    72  1.7954e+11  4.9627e-02  3.3745e-02  2.9757e-01  6.3698e+15  1.7332e+16  0:00:14   28

 reversed flow in 166 faces on pressure-outlet 7. 
    73  2.6477e+11  5.1871e-02  3.3838e-02  2.9767e-01  4.4078e+15  7.3768e+16  0:00:16   27

 reversed flow in 125 faces on pressure-outlet 7. 
    74  3.8865e+11  5.2028e-02  3.3807e-02  2.9778e-01  7.7806e+16 -5.7699e+17  0:00:18   26

 reversed flow in 129 faces on pressure-outlet 7. 
    75  5.7287e+11  5.2120e-02  3.4280e-02  2.9688e-01 -4.9826e+16  6.4405e+17  0:00:14   25

 reversed flow in 81 faces on pressure-outlet 7. 
    76  8.3390e+11  5.2264e-02  3.4875e-02  2.9865e-01 -1.9410e+17  1.7624e+18  0:00:15   24

 reversed flow in 3 faces on pressure-outlet 7. 
    77  1.2254e+12  5.3608e-02  3.5334e-02  3.0230e-01  1.5332e+17  1.7224e+18  0:00:12   23
  iter  continuity  x-velocity  y-velocity  z-velocity        Cm-1        Cd-1     time/iter
    78  1.7766e+12  5.3062e-02  3.5128e-02  3.0208e-01  6.9344e+17 -1.2484e+19  0:00:13   22

 reversed flow in 3 faces on pressure-outlet 7. 
    79  2.6026e+12  5.3375e-02  3.4530e-02  2.9494e-01  1.7730e+18 -3.0158e+19  0:00:14   21

 reversed flow in 2 faces on pressure-outlet 7. 
    80  3.8180e+12  5.2367e-02  3.4285e-02  2.9835e-01  1.0690e+19 -1.0551e+20  0:00:11   20

 reversed flow in 2 faces on pressure-outlet 7. 
    81  5.5882e+12  5.3382e-02  3.4648e-02  2.9466e-01  5.0716e+18 -3.9246e+19  0:00:12   19

 reversed flow in 16 faces on pressure-outlet 7. 
    82  8.3262e+12  5.3156e-02  3.4881e-02  3.0481e-01  3.0372e+18 -5.9722e+19  0:00:09   18
    83  1.2263e+13  5.2152e-02  3.4013e-02  2.9756e-01  1.1302e+20 -1.5878e+21  0:00:10   17
    84  1.7971e+13  5.3040e-02  3.4429e-02  3.0257e-01  2.1608e+20 -1.9744e+21  0:00:11   16
    85  2.6494e+13  5.1951e-02  3.4087e-02  2.9862e-01 -3.9657e+20  5.2046e+21  0:00:08   15

 reversed flow in 50 faces on pressure-outlet 7. 
    86  3.9990e+13  5.2462e-02  3.3681e-02  3.0212e-01 -4.4107e+20  6.6081e+21  0:00:09   14
    87  5.8742e+13  5.1529e-02  3.3157e-02  2.9716e-01  8.3780e+20 -8.2009e+21  0:00:07   13

 reversed flow in 18 faces on pressure-outlet 7. 
# Divergence detected in AMG solver: pressure correction -> Turning off correction scaling!
    88  8.7055e+13  5.0577e-02  3.3527e-02  3.0329e-01  7.5287e+20 -3.1018e+19  0:00:07   12
  iter  continuity  x-velocity  y-velocity  z-velocity        Cm-1        Cd-1     time/iter
    89  1.2170e+14  5.1150e-02  3.3413e-02  3.0219e-01 -6.7214e+21  8.7918e+22  0:00:08   11
    90  1.7156e+14  5.4217e-02  3.5386e-02  3.1499e-01  4.5832e+21 -3.7499e+22  0:00:06   10
    91  2.3465e+14  5.4248e-02  3.5815e-02  3.0997e-01  2.2045e+22 -2.2034e+23  0:00:06    9
    92  3.2801e+14  5.4859e-02  3.7033e-02  3.2115e-01 -1.8900e+22  2.4865e+23  0:00:04    8
    93  3.8622e+14  5.6787e-02  3.6655e-02  2.9923e-01  1.5388e+22 -1.9735e+23  0:00:04    7
    94  4.9759e+14  6.4989e-02  4.2546e-02  3.5079e-01  7.6365e+22 -1.3162e+24  0:00:04    6
    95  6.1771e+14  6.1331e-02  4.0846e-02  3.4140e-01 -1.2321e+23  1.3289e+24  0:00:03    5
    96  7.7138e+14  6.4479e-02  4.3106e-02  3.5584e-01 -1.7690e+23  2.9188e+24  0:00:03    4
    97  9.7035e+14  6.4901e-02  4.2439e-02  3.5721e-01  2.1467e+23 -3.4353e+24  0:00:02    3
    98  1.2199e+15  6.6468e-02  4.2283e-02  3.5587e-01 -1.4429e+23  8.5147e+23  0:00:01    2
    99  1.5414e+15  6.6461e-02  4.0973e-02  3.5618e-01 -4.7174e+23  7.3572e+24  0:00:01    1
  iter  continuity  x-velocity  y-velocity  z-velocity        Cm-1        Cd-1     time/iter
   100  1.9349e+15  6.7481e-02  4.0729e-02  3.5569e-01 -6.1947e+23  1.1363e+25  0:00:00    0
Writing data to C:\\Users\\yskj\\AppData\\Local\\Temp\\WB_YSKJ-PC_yskj_5532_2\\unsaved_project_files\\dp0\\FFF\\Fluent\\FFF.ip ...
	x-coord
	y-coord
	z-coord
	pressure
	x-velocity
	y-velocity
	z-velocity
	hyb_init-0
	hyb_init-1
Done.

Calculation complete.
(cx-gui-do cx-activate-item "Information*OK")
(cx-gui-do cx-activate-item "MenuBar*WriteSubMenu*Stop Transcript")