
Build Time: Dec  2 2015 18:06:56 
Executable Path: D:/ansys/ANSYSI~1/v170/fluent/ntbin/win64/fluent.exe
(cx-gui-do cx-set-file-dialog-entries "Select File" '( "file-name") "Transcript Files (*.trn *.out )")
(cx-gui-do cx-activate-item "Solution Initialization*Table1*ButtonBox10*PushButton2(Initialize)")
(cx-gui-do cx-activate-item "Question*OK")

Initialize using the hybrid initialization method.

Checking case topology... 
-This case has both inlets & outlets 
-Pressure information is not available at the boundaries.
 Case will be initialized with constant pressure

	iter		scalar-0

	1		1.000000e+00
	2		6.991793e-05
	3		1.455056e-05
	4		2.101970e-05
	5		5.812409e-06
	6		9.598152e-06
	7		3.204781e-06
	8		5.114963e-06
	9		1.904517e-06
	10		2.743818e-06
hybrid initialization is done.

Warning: convergence tolerance of 1.000000e-06 not reached
during Hybrid Initialization.
(cx-gui-do cx-set-list-tree-selections "NavigationPane*List_Tree1" (list "Solution|Calculation Activities"))
(cx-gui-do cx-set-list-tree-selections "NavigationPane*List_Tree1" (list "Solution|Run Calculation"))
(cx-gui-do cx-set-real-entry-list "Run Calculation*Table1*Table7*RealEntry1(Time Step Size)" '( 0.01))
(cx-gui-do cx-activate-item "Run Calculation*Table1*Table7*RealEntry1(Time Step Size)")
(cx-gui-do cx-activate-item "Run Calculation*Table1*PushButton22(Calculate)")

Writing Settings file "C:\Users\yskj\AppData\Local\Temp\WB_YSKJ-PC_yskj_5532_2\unsaved_project_files\dp0\FFF\Fluent\FFF.set"...
	writing rp variables ... Done.
	writing domain variables ... Done.
	writing pipe (type fluid) (mixture) ... Done.
	writing ou (type pressure-outlet) (mixture) ... Done.
	writing in (type velocity-inlet) (mixture) ... Done.
	writing wall-pipe (type wall) (mixture) ... Done.
	writing interior-pipe (type interior) (mixture) ... Done.
	writing zones map name-id ... Done.

Writing "| gzip -2cf > FFF-2.cas.gz"...
Writing temporary file C:\\Users\\yskj\\AppData\\Local\\Temp\\flntgz-80767 ...
   90387 mixed cells, zone  3, binary.
    9960 quadrilateral wall faces, zone  1, binary.
  265320 mixed interior faces, zone  2, binary.
     363 mixed velocity-inlet faces, zone  6, binary.
     363 mixed pressure-outlet faces, zone  7, binary.
   95500 nodes, binary.
   95500 node flags, binary.
Done.

Writing "| gzip -2cf > FFF-2-00000.dat.gz"...
Writing temporary file C:\\Users\\yskj\\AppData\\Local\\Temp\\flntgz-80768 ...
Done.


Updating solution at time level N... done.
  iter  continuity  x-velocity  y-velocity  z-velocity     time/iter
     1  1.0000e+00  2.1652e-04  7.2625e-03  6.1426e-03  0:00:14   19
     2  8.6618e-01  5.2346e-04  6.6154e-03  4.7025e-03  0:00:14   18
     3  7.1063e-01  5.4351e-04  4.8724e-03  3.3621e-03  0:00:11   17
     4  5.7869e-01  5.2982e-04  3.6804e-03  2.6477e-03  0:00:11   16
     5  5.0408e-01  4.8768e-04  3.0353e-03  2.3615e-03  0:00:12   15
     6  4.3500e-01  4.5635e-04  2.5692e-03  2.1708e-03  0:00:09   14
     7  3.6437e-01  4.1718e-04  2.0136e-03  1.7396e-03  0:00:09   13
     8  3.2922e-01  3.6470e-04  1.7144e-03  1.5741e-03  0:00:09   12
     9  2.8980e-01  3.3146e-04  1.4332e-03  1.4332e-03  0:00:07   11
    10  2.5540e-01  2.9910e-04  1.1999e-03  1.2760e-03  0:00:07   10
    11  2.2417e-01  2.6803e-04  1.0179e-03  1.1615e-03  0:00:05    9
  iter  continuity  x-velocity  y-velocity  z-velocity     time/iter
    12  1.9950e-01  2.3978e-04  8.4358e-04  1.0258e-03  0:00:05    8
    13  1.7968e-01  2.1211e-04  7.2348e-04  9.3437e-04  0:00:05    7
    14  1.6476e-01  1.8804e-04  6.6637e-04  8.1722e-04  0:00:03    6
    15  1.4875e-01  1.6700e-04  5.5859e-04  7.1612e-04  0:00:03    5
    16  1.3794e-01  1.4572e-04  4.9242e-04  6.1580e-04  0:00:03    4
    17  1.2987e-01  1.3005e-04  4.3252e-04  5.5040e-04  0:00:02    3
    18  1.2089e-01  1.1398e-04  3.6551e-04  4.7088e-04  0:00:01    2
    19  1.1797e-01  1.0184e-04  3.1790e-04  4.2178e-04  0:00:01    1
    20  1.2035e-01  9.2070e-05  2.8400e-04  3.8046e-04  0:00:00    0
Flow time = 0.009999999776482582s, time step = 1
99 more time steps

Updating solution at time level N... done.
  iter  continuity  x-velocity  y-velocity  z-velocity     time/iter
    20  1.2035e-01  9.2070e-05  2.8400e-04  3.8046e-04  0:00:12   20
    21  4.5314e-01  1.4469e-03  1.5109e-02  6.4439e-03  0:00:09   19
    22  4.5964e-01  7.4247e-04  7.1519e-03  3.0349e-03  0:00:11   18
    23  4.4461e-01  4.9722e-04  3.9258e-03  1.8375e-03  0:00:08   17
    24  4.2238e-01  4.1402e-04  2.5405e-03  1.4565e-03  0:00:09   16
    25  3.8693e-01  3.7735e-04  1.8310e-03  1.3571e-03  0:00:10   15
    26  3.6656e-01  3.4160e-04  1.4492e-03  1.3203e-03  0:00:07   14
    27  3.4663e-01  3.1138e-04  1.2124e-03  1.2564e-03  0:00:08   13
    28  3.4377e-01  2.8684e-04  1.0683e-03  1.1894e-03  0:00:08   12
    29  3.4562e-01  2.5756e-04  8.7549e-04  1.0850e-03  0:00:06   11
    30  3.4910e-01  2.4187e-04  7.7695e-04  1.0060e-03  0:00:06   10
  iter  continuity  x-velocity  y-velocity  z-velocity     time/iter
    31  3.6565e-01  2.2256e-04  6.7184e-04  9.2797e-04  0:00:05    9
    32  3.8534e-01  2.0897e-04  5.9470e-04  9.0711e-04  0:00:05    8
    33  4.0666e-01  2.0477e-04  5.4734e-04  9.0770e-04  0:00:05    7
    34  4.3972e-01  1.9293e-04  4.7026e-04  8.6138e-04  0:00:03    6
    35  4.7911e-01  1.9159e-04  4.4339e-04  8.9618e-04  0:00:03    5
    36  5.2376e-01  1.9451e-04  4.1313e-04  9.3671e-04  0:00:02    4
    37  5.6915e-01  2.0144e-04  3.7583e-04  9.5984e-04  0:00:02    3
    38  6.1630e-01  2.0938e-04  3.5213e-04  1.0013e-03  0:00:01    2
    39  6.6755e-01  2.1719e-04  3.4048e-04  1.0554e-03  0:00:01    1
    40  7.2395e-01  2.2700e-04  3.3050e-04  1.1121e-03  0:00:00    0
Flow time = 0.01999999955296516s, time step = 2
98 more time steps

Updating solution at time level N... done.
  iter  continuity  x-velocity  y-velocity  z-velocity     time/iter
    40  7.2395e-01  2.2700e-04  3.3050e-04  1.1121e-03  0:00:13   20
    41  8.9994e-01  8.0124e-04  4.9202e-03  6.7880e-03  0:00:14   19
    42  1.0379e+00  4.9445e-04  2.2554e-03  3.7400e-03  0:00:10   18
    43  1.1547e+00  4.0080e-04  1.1798e-03  2.5747e-03  0:00:11   17
    44  1.2691e+00  3.8776e-04  7.6993e-04  2.1942e-03  0:00:08   16
    45  1.3809e+00  4.0396e-04  6.0640e-04  2.1172e-03  0:00:09   15
    46  1.5013e+00  4.3064e-04  5.6651e-04  2.1877e-03  0:00:10   14
    47  1.6288e+00  4.6319e-04  5.6888e-04  2.3197e-03  0:00:07   13
    48  1.7764e+00  4.9952e-04  6.2350e-04  2.5403e-03  0:00:08   12
    49  1.9288e+00  5.3884e-04  6.3718e-04  2.7021e-03  0:00:06   11
    50  2.0924e+00  5.8073e-04  6.7066e-04  2.9067e-03  0:00:06   10
  iter  continuity  x-velocity  y-velocity  z-velocity     time/iter
    51  2.2673e+00  6.2650e-04  7.1371e-04  3.1321e-03  0:00:06    9
    52  2.4603e+00  6.7322e-04  7.6073e-04  3.3729e-03  0:00:04    8
    53  2.6638e+00  7.2560e-04  8.1240e-04  3.6354e-03  0:00:04    7
    54  2.8824e+00  7.8113e-04  8.6730e-04  3.9122e-03  0:00:03    6
    55  3.1227e+00  8.4056e-04  9.2649e-04  4.2082e-03  0:00:03    5
    56  3.3764e+00  9.0605e-04  9.9307e-04  4.5394e-03  0:00:03    4
    57  3.6495e+00  9.7551e-04  1.0647e-03  4.8893e-03  0:00:02    3
    58  3.9465e+00  1.0510e-03  1.1417e-03  5.2647e-03  0:00:01    2
    59  4.2676e+00  1.1339e-03  1.2243e-03  5.6739e-03  0:00:01    1
    60  4.3231e+00  1.2735e-03  1.3593e-03  6.3909e-03  0:00:00    0
Flow time = 0.02999999932944775s, time step = 3
97 more time steps

Updating solution at time level N... done.
  iter  continuity  x-velocity  y-velocity  z-velocity     time/iter
    60  4.3231e+00  1.2735e-03  1.3593e-03  6.3909e-03  0:00:12   20
    61  4.7502e+00  3.0213e-03  5.9172e-03  1.7660e-02  0:00:13   19
    62  4.9297e+00  2.0765e-03  3.2678e-03  1.1517e-02  0:00:14   18
    63  4.9861e+00  1.7425e-03  2.2524e-03  9.1526e-03  0:00:10   17
    64  4.9842e+00  1.6149e-03  1.8595e-03  8.1986e-03  0:00:11   16
    65  4.9725e+00  1.5607e-03  1.7032e-03  7.7570e-03  0:00:08   15
    66  4.9540e+00  1.5348e-03  1.6312e-03  7.5211e-03  0:00:09   14
    67  4.9340e+00  1.5108e-03  1.5868e-03  7.3705e-03  0:00:09   13
    68  4.9022e+00  1.4900e-03  1.5587e-03  7.2553e-03  0:00:07   12
    69  4.8741e+00  1.4674e-03  1.5379e-03  7.1481e-03  0:00:07   11
    70  4.8309e+00  1.4489e-03  1.5161e-03  7.0506e-03  0:00:05   10
  iter  continuity  x-velocity  y-velocity  z-velocity     time/iter
    71  4.7957e+00  1.4261e-03  1.4921e-03  6.9431e-03  0:00:06    9
    72  4.7528e+00  1.4035e-03  1.4709e-03  6.8399e-03  0:00:04    8
    73  4.7106e+00  1.3772e-03  1.4451e-03  6.7240e-03  0:00:04    7
    74  4.6701e+00  1.3569e-03  1.4244e-03  6.6249e-03  0:00:04    6
    75  4.6269e+00  1.3346e-03  1.4022e-03  6.5267e-03  0:00:03    5
    76  4.5856e+00  1.3119e-03  1.3803e-03  6.4197e-03  0:00:03    4
    77  4.5376e+00  1.2873e-03  1.3545e-03  6.3122e-03  0:00:02    3
    78  4.4845e+00  1.2706e-03  1.3342e-03  6.2189e-03  0:00:01    2
    79  4.4338e+00  1.2494e-03  1.3140e-03  6.1096e-03  0:00:01    1
    80  4.3887e+00  1.2294e-03  1.2925e-03  6.0035e-03  0:00:00    0
Flow time = 0.03999999910593033s, time step = 4
96 more time steps

Updating solution at time level N... done.
  iter  continuity  x-velocity  y-velocity  z-velocity     time/iter
    80  4.3887e+00  1.2294e-03  1.2925e-03  6.0035e-03  0:00:11   20
    81  4.8039e+00  3.0572e-03  5.7116e-03  1.6926e-02  0:00:08   19
    82  4.9613e+00  1.9846e-03  3.0742e-03  1.0540e-02  0:00:10   18
    83  5.0060e+00  1.6097e-03  2.0751e-03  8.1515e-03  0:00:07   17
    84  5.0043e+00  1.4714e-03  1.6919e-03  7.2174e-03  0:00:09   16
    85  4.9751e+00  1.4159e-03  1.5407e-03  6.8312e-03  0:00:07   15
    86  4.9376e+00  1.3873e-03  1.4731e-03  6.6218e-03  0:00:08   14
    87  4.9060e+00  1.3643e-03  1.4317e-03  6.4833e-03  0:00:08   13
    88  4.8752e+00  1.3499e-03  1.4079e-03  6.3905e-03  0:00:06   12
    89  4.8398e+00  1.3380e-03  1.3935e-03  6.3244e-03  0:00:07   11
    90  4.7939e+00  1.3224e-03  1.3744e-03  6.2370e-03  0:00:05   10
  iter  continuity  x-velocity  y-velocity  z-velocity     time/iter
    91  4.7554e+00  1.3042e-03  1.3540e-03  6.1473e-03  0:00:05    9
    92  4.7174e+00  1.2887e-03  1.3390e-03  6.0681e-03  0:00:05    8
    93  4.6728e+00  1.2753e-03  1.3262e-03  5.9969e-03  0:00:04    7
    94  4.6334e+00  1.2582e-03  1.3064e-03  5.9076e-03  0:00:04    6
    95  4.5949e+00  1.2411e-03  1.2892e-03  5.8256e-03  0:00:03    5
    96  4.5523e+00  1.2264e-03  1.2727e-03  5.7447e-03  0:00:02    4
    97  4.4984e+00  1.2107e-03  1.2559e-03  5.6690e-03  0:00:02    3
    98  4.4552e+00  1.1940e-03  1.2384e-03  5.5830e-03  0:00:01    2
    99  4.4093e+00  1.1778e-03  1.2163e-03  5.4915e-03  0:00:01    1
   100  4.3613e+00  1.1601e-03  1.1981e-03  5.4083e-03  0:00:00    0
Flow time = 0.04999999701976776s, time step = 5
95 more time steps

Updating solution at time level N... done.
  iter  continuity  x-velocity  y-velocity  z-velocity     time/iter
   100  4.3613e+00  1.1601e-03  1.1981e-03  5.4083e-03  0:00:10   20
   101  4.8287e+00  3.0206e-03  5.4183e-03  1.6316e-02  0:00:08   19
   102  5.0153e+00  1.9274e-03  2.9141e-03  1.0014e-02  0:00:09   18
   103  5.0701e+00  1.5584e-03  1.9617e-03  7.6798e-03  0:00:11   17
   104  5.0644e+00  1.4286e-03  1.5982e-03  6.7952e-03  0:00:08   16
   105  5.0317e+00  1.3741e-03  1.4507e-03  6.4200e-03  0:00:09   15
   106  5.0009e+00  1.3491e-03  1.3853e-03  6.2370e-03  0:00:07   14
   107  4.9650e+00  1.3310e-03  1.3482e-03  6.1236e-03  0:00:08   13
   108  4.9341e+00  1.3125e-03  1.3242e-03  6.0370e-03  0:00:06   12
   109  4.8890e+00  1.2957e-03  1.3026e-03  5.9566e-03  0:00:06   11
   110  4.8437e+00  1.2820e-03  1.2868e-03  5.8963e-03  0:00:07   10
  iter  continuity  x-velocity  y-velocity  z-velocity     time/iter
   111  4.7995e+00  1.2673e-03  1.2704e-03  5.8223e-03  0:00:05    9
   112  4.7624e+00  1.2447e-03  1.2492e-03  5.7361e-03  0:00:05    8
   113  4.7146e+00  1.2256e-03  1.2314e-03  5.6574e-03  0:00:03    7
   114  4.6669e+00  1.2084e-03  1.2119e-03  5.5859e-03  0:00:04    6
   115  4.6228e+00  1.1954e-03  1.2013e-03  5.5219e-03  0:00:03    5
   116  4.5829e+00  1.1751e-03  1.1800e-03  5.4388e-03  0:00:02    4
   117  4.5266e+00  1.1545e-03  1.1599e-03  5.3548e-03  0:00:02    3
   118  4.4776e+00  1.1345e-03  1.1365e-03  5.2684e-03  0:00:01    2
   119  4.4282e+00  1.1191e-03  1.1204e-03  5.1960e-03  0:00:01    1
   120  4.3878e+00  1.1012e-03  1.1040e-03  5.1253e-03  0:00:00    0
Flow time = 0.05999999865889549s, time step = 6
94 more time steps

Updating solution at time level N... done.
  iter  continuity  x-velocity  y-velocity  z-velocity     time/iter
   120  4.3878e+00  1.1012e-03  1.1040e-03  5.1253e-03  0:00:14   20
   121  4.8484e+00  2.8655e-03  5.0562e-03  1.5177e-02  0:00:10   19
   122  5.0283e+00  1.8207e-03  2.7092e-03  9.3367e-03  0:00:11   18
   123  5.0765e+00  1.4725e-03  1.8187e-03  7.2179e-03  0:00:12   17
   124  5.0732e+00  1.3423e-03  1.4654e-03  6.3945e-03  0:00:09   16
   125  5.0465e+00  1.2882e-03  1.3246e-03  6.0521e-03  0:00:10   15
   126  5.0033e+00  1.2634e-03  1.2648e-03  5.8835e-03  0:00:07   14
   127  4.9643e+00  1.2494e-03  1.2303e-03  5.7837e-03  0:00:08   13
   128  4.9316e+00  1.2336e-03  1.2074e-03  5.7065e-03  0:00:08   12
   129  4.8896e+00  1.2131e-03  1.1861e-03  5.6400e-03  0:00:06   11
   130  4.8334e+00  1.1972e-03  1.1698e-03  5.5691e-03  0:00:06   10
  iter  continuity  x-velocity  y-velocity  z-velocity     time/iter
   131  4.7907e+00  1.1852e-03  1.1536e-03  5.4951e-03  0:00:05    9
   132  4.7517e+00  1.1697e-03  1.1359e-03  5.4272e-03  0:00:05    8
   133  4.7114e+00  1.1493e-03  1.1156e-03  5.3505e-03  0:00:05    7
   134  4.6558e+00  1.1278e-03  1.0986e-03  5.2796e-03  0:00:03    6
   135  4.5931e+00  1.1104e-03  1.0817e-03  5.1963e-03  0:00:03    5
   136  4.5359e+00  1.0947e-03  1.0654e-03  5.1178e-03  0:00:02    4
   137  4.4842e+00  1.0763e-03  1.0460e-03  5.0356e-03  0:00:02    3
   138  4.4255e+00  1.0502e-03  1.0236e-03  4.9428e-03  0:00:01    2
   139  4.3558e+00  1.0314e-03  1.0056e-03  4.8631e-03  0:00:01    1
   140  4.2848e+00  1.0165e-03  9.9020e-04  4.7853e-03  0:00:00    0
Flow time = 0.07000000029802322s, time step = 7
93 more time steps

Updating solution at time level N... done.
  iter  continuity  x-velocity  y-velocity  z-velocity     time/iter
   140  4.2848e+00  1.0165e-03  9.9020e-04  4.7853e-03  0:00:13   20
   141  4.7167e+00  2.6811e-03  4.6699e-03  1.4248e-02  0:00:14   19
   142  4.8845e+00  1.6806e-03  2.4716e-03  8.6968e-03  0:00:11   18
   143  4.9076e+00  1.3452e-03  1.6383e-03  6.6709e-03  0:00:11   17
   144  4.8843e+00  1.2281e-03  1.3135e-03  5.8986e-03  0:00:09   16
   145  4.8486e+00  1.1818e-03  1.1808e-03  5.5758e-03  0:00:09   15
   146  4.8000e+00  1.1531e-03  1.1188e-03  5.4119e-03  0:00:10   14
   147  4.7435e+00  1.1328e-03  1.0873e-03  5.3049e-03  0:00:07   13
   148  4.6942e+00  1.1182e-03  1.0654e-03  5.2206e-03  0:00:08   12
   149  4.6372e+00  1.1050e-03  1.0424e-03  5.1590e-03  0:00:06   11
   150  4.5858e+00  1.0876e-03  1.0214e-03  5.0777e-03  0:00:06   10
  iter  continuity  x-velocity  y-velocity  z-velocity     time/iter
   151  4.5241e+00  1.0663e-03  1.0027e-03  5.0009e-03  0:00:04    9
   152  4.4600e+00  1.0463e-03  9.8396e-04  4.9191e-03  0:00:05    8
   153  4.4037e+00  1.0315e-03  9.6929e-04  4.8517e-03  0:00:05    7
   154  4.3475e+00  1.0134e-03  9.4895e-04  4.7770e-03  0:00:03    6
   155  4.2791e+00  9.9172e-04  9.2972e-04  4.6874e-03  0:00:03    5
   156  4.2078e+00  9.6794e-04  9.1150e-04  4.6016e-03  0:00:02    4
   157  4.1390e+00  9.5113e-04  8.9658e-04  4.5174e-03  0:00:02    3
   158  4.0732e+00  9.3271e-04  8.7700e-04  4.4372e-03  0:00:01    2
   159  4.0052e+00  9.1010e-04  8.5370e-04  4.3444e-03  0:00:01    1
   160  3.9314e+00  8.8666e-04  8.3352e-04  4.2441e-03  0:00:00    0
Flow time = 0.07999999821186066s, time step = 8
92 more time steps

Updating solution at time level N... done.
  iter  continuity  x-velocity  y-velocity  z-velocity     time/iter
   160  3.9314e+00  8.8666e-04  8.3352e-04  4.2441e-03  0:00:13   20
   161  4.2989e+00  2.4078e-03  4.2329e-03  1.2979e-02  0:00:13   19
   162  4.4466e+00  1.4935e-03  2.2074e-03  7.8377e-03  0:00:10   18
   163  4.4614e+00  1.1802e-03  1.4307e-03  5.9506e-03  0:00:11   17
   164  4.4208e+00  1.0642e-03  1.1220e-03  5.2192e-03  0:00:08   16
   165  4.3656e+00  1.0130e-03  9.9242e-04  4.8996e-03  0:00:09   15
   166  4.3094e+00  9.8798e-04  9.3414e-04  4.7236e-03  0:00:10   14
   167  4.2462e+00  9.6526e-04  9.0029e-04  4.6169e-03  0:00:07   13
   168  4.1741e+00  9.4568e-04  8.7587e-04  4.5288e-03  0:00:08   12
   169  4.1026e+00  9.2683e-04  8.5525e-04  4.4472e-03  0:00:06   11
   170  4.0377e+00  9.0791e-04  8.3424e-04  4.3548e-03  0:00:06   10
  iter  continuity  x-velocity  y-velocity  z-velocity     time/iter
   171  3.9773e+00  8.8682e-04  8.1660e-04  4.2686e-03  0:00:06    9
   172  3.9067e+00  8.6607e-04  7.9387e-04  4.1870e-03  0:00:04    8
   173  3.8319e+00  8.4388e-04  7.7492e-04  4.1032e-03  0:00:04    7
   174  3.7596e+00  8.2651e-04  7.5664e-04  4.0190e-03  0:00:03    6
   175  3.6912e+00  8.0636e-04  7.3726e-04  3.9297e-03  0:00:03    5
   176  3.6175e+00  7.8625e-04  7.1797e-04  3.8455e-03  0:00:03    4
   177  3.5464e+00  7.6692e-04  6.9919e-04  3.7559e-03  0:00:02    3
   178  3.4705e+00  7.4613e-04  6.8298e-04  3.6739e-03  0:00:01    2
   179  3.3960e+00  7.2549e-04  6.6379e-04  3.5887e-03  0:00:01    1
   180  3.3197e+00  7.0689e-04  6.4548e-04  3.4966e-03  0:00:00    0
Flow time = 0.08999999612569809s, time step = 9
91 more time steps

Updating solution at time level N... done.
  iter  continuity  x-velocity  y-velocity  z-velocity     time/iter
   180  3.3197e+00  7.0689e-04  6.4548e-04  3.4966e-03  0:00:12   20
   181  3.6106e+00  1.9907e-03  3.6879e-03  1.1102e-02  0:00:13   19
   182  3.7203e+00  1.2107e-03  1.8697e-03  6.5862e-03  0:00:14   18
   183  3.7173e+00  9.3758e-04  1.1626e-03  4.9148e-03  0:00:10   17
   184  3.6660e+00  8.3221e-04  8.8028e-04  4.2447e-03  0:00:11   16
   185  3.5957e+00  7.8539e-04  7.6005e-04  3.9422e-03  0:00:08   15
   186  3.5208e+00  7.5819e-04  7.0279e-04  3.7774e-03  0:00:09   14
   187  3.4466e+00  7.3702e-04  6.6815e-04  3.6627e-03  0:00:09   13
   188  3.3749e+00  7.1843e-04  6.4617e-04  3.5692e-03  0:00:07   12
   189  3.2980e+00  6.9976e-04  6.2779e-04  3.4760e-03  0:00:07   11
   190  3.2203e+00  6.8070e-04  6.1003e-04  3.3972e-03  0:00:05   10
  iter  continuity  x-velocity  y-velocity  z-velocity     time/iter
   191  3.1432e+00  6.6427e-04  5.9245e-04  3.3163e-03  0:00:06    9
   192  3.0677e+00  6.4641e-04  5.7603e-04  3.2365e-03  0:00:04    8
   193  2.9957e+00  6.2932e-04  5.5820e-04  3.1471e-03  0:00:04    7
   194  2.9217e+00  6.1158e-04  5.4347e-04  3.0652e-03  0:00:04    6
   195  2.8487e+00  5.9359e-04  5.2709e-04  2.9855e-03  0:00:03    5
   196  2.7756e+00  5.7627e-04  5.1263e-04  2.9024e-03  0:00:03    4
   197  2.7047e+00  5.5809e-04  4.9547e-04  2.8231e-03  0:00:02    3
   198  2.6350e+00  5.4219e-04  4.8097e-04  2.7409e-03  0:00:01    2
   199  2.5617e+00  5.2587e-04  4.6571e-04  2.6654e-03  0:00:01    1
   200  2.4908e+00  5.1054e-04  4.5352e-04  2.5912e-03  0:00:00    0
Flow time = 0.09999999403953552s, time step = 10
90 more time steps

Updating solution at time level N... done.
  iter  continuity  x-velocity  y-velocity  z-velocity     time/iter
   200  2.4908e+00  5.1054e-04  4.5352e-04  2.5912e-03  0:00:11   20
   201  2.7021e+00  1.5171e-03  3.1581e-03  8.7802e-03  0:00:08   19
   202  2.7797e+00  9.0288e-04  1.5452e-03  5.0963e-03  0:00:10   18
   203  2.7576e+00  6.8308e-04  9.0877e-04  3.6963e-03  0:00:07   17
   204  2.7019e+00  5.9486e-04  6.4798e-04  3.1285e-03  0:00:09   16
   205  2.6358e+00  5.5381e-04  5.3770e-04  2.8639e-03  0:00:07   15
   206  2.5657e+00  5.2889e-04  4.8637e-04  2.7155e-03  0:00:08   14
   207  2.4969e+00  5.1058e-04  4.5798e-04  2.6093e-03  0:00:08   13
   208  2.4255e+00  4.9371e-04  4.3670e-04  2.5249e-03  0:00:06   12
   209  2.3556e+00  4.7788e-04  4.2099e-04  2.4491e-03  0:00:07   11
   210  2.2889e+00  4.6181e-04  4.0519e-04  2.3734e-03  0:00:05   10
  iter  continuity  x-velocity  y-velocity  z-velocity     time/iter
   211  2.2238e+00  4.4741e-04  3.9008e-04  2.3033e-03  0:00:05    9
   212  2.1633e+00  4.3353e-04  3.7625e-04  2.2325e-03  0:00:05    8
   213  2.0964e+00  4.2078e-04  3.6508e-04  2.1687e-03  0:00:04    7
   214  2.0315e+00  4.0657e-04  3.5306e-04  2.1021e-03  0:00:04    6
   215  1.9694e+00  3.9313e-04  3.4119e-04  2.0367e-03  0:00:03    5
   216  1.9115e+00  3.8084e-04  3.2962e-04  1.9709e-03  0:00:02    4
   217  1.8540e+00  3.6914e-04  3.1768e-04  1.9076e-03  0:00:02    3
   218  1.7926e+00  3.5618e-04  3.0754e-04  1.8477e-03  0:00:01    2
   219  1.7336e+00  3.4256e-04  2.9870e-04  1.7898e-03  0:00:01    1
   220  1.6780e+00  3.3050e-04  2.8742e-04  1.7276e-03  0:00:00    0
Flow time = 0.1099999994039536s, time step = 11
89 more time steps

Updating solution at time level N... done.
  iter  continuity  x-velocity  y-velocity  z-velocity     time/iter
   220  1.6780e+00  3.3050e-04  2.8742e-04  1.7276e-03  0:00:10   20
   221  1.8142e+00  1.0683e-03  2.6853e-03  6.4748e-03  0:00:08   19
   222  1.8552e+00  6.1875e-04  1.2581e-03  3.6495e-03  0:00:09   18
   223  1.8289e+00  4.5128e-04  6.8607e-04  2.5491e-03  0:00:07   17
   224  1.7836e+00  3.8277e-04  4.5244e-04  2.0927e-03  0:00:09   16
   225  1.7343e+00  3.5089e-04  3.5318e-04  1.8756e-03  0:00:09   15
   226  1.6803e+00  3.3312e-04  3.0811e-04  1.7553e-03  0:00:07   14
   227  1.6206e+00  3.1962e-04  2.8507e-04  1.6711e-03  0:00:08   13
   228  1.5635e+00  3.0717e-04  2.6944e-04  1.6120e-03  0:00:06   12
   229  1.5133e+00  2.9550e-04  2.5777e-04  1.5548e-03  0:00:06   11
   230  1.4670e+00  2.8584e-04  2.4680e-04  1.5000e-03  0:00:07   10
  iter  continuity  x-velocity  y-velocity  z-velocity     time/iter
   231  1.4177e+00  2.7593e-04  2.3671e-04  1.4448e-03  0:00:05    9
   232  1.3637e+00  2.6638e-04  2.2833e-04  1.3992e-03  0:00:05    8
   233  1.3153e+00  2.5637e-04  2.2013e-04  1.3542e-03  0:00:04    7
   234  1.2718e+00  2.4753e-04  2.1228e-04  1.3092e-03  0:00:04    6
   235  1.2311e+00  2.3909e-04  2.0408e-04  1.2603e-03  0:00:03    5
   236  1.1883e+00  2.3057e-04  1.9658e-04  1.2134e-03  0:00:02    4
   237  1.1436e+00  2.2180e-04  1.8931e-04  1.1720e-03  0:00:02    3
   238  1.1023e+00  2.1391e-04  1.8329e-04  1.1342e-03  0:00:01    2
   239  1.0663e+00  2.0591e-04  1.7681e-04  1.0935e-03  0:00:01    1
   240  1.0305e+00  1.9854e-04  1.7002e-04  1.0518e-03  0:00:00    0
Flow time = 0.119999997317791s, time step = 12
88 more time steps

Updating solution at time level N... done.
  iter  continuity  x-velocity  y-velocity  z-velocity     time/iter
   240  1.0305e+00  1.9854e-04  1.7002e-04  1.0518e-03  0:00:10   20
   241  1.1077e+00  7.3672e-04  2.3513e-03  4.6936e-03  0:00:07   19
   242  1.1315e+00  4.1125e-04  1.0609e-03  2.5397e-03  0:00:09   18
   243  1.1158e+00  2.8689e-04  5.3712e-04  1.6842e-03  0:00:10   17
   244  1.0848e+00  2.3555e-04  3.2189e-04  1.3227e-03  0:00:08   16
   245  1.0481e+00  2.1154e-04  2.3243e-04  1.1530e-03  0:00:09   15
   246  1.0091e+00  1.9802e-04  1.9353e-04  1.0622e-03  0:00:07   14
   247  9.7207e-01  1.8892e-04  1.7349e-04  1.0048e-03  0:00:08   13
   248  9.3739e-01  1.8127e-04  1.6145e-04  9.6108e-04  0:00:08   12
   249  9.0358e-01  1.7407e-04  1.5356e-04  9.2283e-04  0:00:06   11
   250  8.7108e-01  1.6766e-04  1.4683e-04  8.8733e-04  0:00:06   10
  iter  continuity  x-velocity  y-velocity  z-velocity     time/iter
   251  8.3906e-01  1.6163e-04  1.4063e-04  8.5480e-04  0:00:04    9
   252  8.0782e-01  1.5606e-04  1.3497e-04  8.2533e-04  0:00:05    8
   253  7.7769e-01  1.5018e-04  1.2994e-04  7.9626e-04  0:00:05    7
   254  7.4857e-01  1.4478e-04  1.2563e-04  7.6696e-04  0:00:03    6
   255  7.2198e-01  1.3945e-04  1.2075e-04  7.3756e-04  0:00:03    5
   256  6.9548e-01  1.3447e-04  1.1586e-04  7.1051e-04  0:00:02    4
   257  6.6887e-01  1.2944e-04  1.1181e-04  6.8542e-04  0:00:02    3
   258  6.4264e-01  1.2455e-04  1.0825e-04  6.6043e-04  0:00:01    2
   259  6.1839e-01  1.2002e-04  1.0449e-04  6.3462e-04  0:00:01    1
   260  5.9593e-01  1.1575e-04  1.0092e-04  6.1044e-04  0:00:00    0
Flow time = 0.1299999952316284s, time step = 13
87 more time steps

Updating solution at time level N... done.
  iter  continuity  x-velocity  y-velocity  z-velocity     time/iter
   260  5.9593e-01  1.1575e-04  1.0092e-04  6.1044e-04  0:00:13   20
   261  6.4133e-01  5.2737e-04  2.1429e-03  3.4801e-03  0:00:14   19
   262  6.5499e-01  2.8123e-04  9.4025e-04  1.7978e-03  0:00:10   18
   263  6.4402e-01  1.8469e-04  4.4727e-04  1.1165e-03  0:00:11   17
   264  6.2417e-01  1.4452e-04  2.4502e-04  8.2782e-04  0:00:08   16
   265  6.0119e-01  1.2611e-04  1.6124e-04  6.9383e-04  0:00:09   15
   266  5.7713e-01  1.1707e-04  1.2581e-04  6.2512e-04  0:00:10   14
   267  5.5445e-01  1.1128e-04  1.0931e-04  5.8427e-04  0:00:07   13
   268  5.3368e-01  1.0692e-04  1.0037e-04  5.5565e-04  0:00:08   12
   269  5.1421e-01  1.0270e-04  9.4556e-05  5.3176e-04  0:00:06   11
   270  4.9526e-01  9.9121e-05  8.9776e-05  5.1099e-04  0:00:06   10
  iter  continuity  x-velocity  y-velocity  z-velocity     time/iter
   271  4.7719e-01  9.5747e-05  8.6244e-05  4.9275e-04  0:00:06    9
   272  4.5994e-01  9.2663e-05  8.3486e-05  4.7675e-04  0:00:04    8
   273  4.4355e-01  8.9677e-05  8.0515e-05  4.6006e-04  0:00:04    7
   274  4.2793e-01  8.6854e-05  7.7490e-05  4.4374e-04  0:00:03    6
   275  4.1316e-01  8.4087e-05  7.5227e-05  4.2873e-04  0:00:03    5
   276  3.9887e-01  8.1317e-05  7.3175e-05  4.1494e-04  0:00:03    4
   277  3.8496e-01  7.8846e-05  7.1214e-05  4.0215e-04  0:00:02    3
   278  3.7206e-01  7.6438e-05  6.8687e-05  3.8803e-04  0:00:01    2
   279  3.5949e-01  7.3792e-05  6.6713e-05  3.7541e-04  0:00:01    1
   280  3.4718e-01  7.1661e-05  6.5272e-05  3.6405e-04  0:00:00    0
Flow time = 0.1400000005960465s, time step = 14
86 more time steps

Updating solution at time level N... done.
  iter  continuity  x-velocity  y-velocity  z-velocity     time/iter
   280  3.4718e-01  7.1661e-05  6.5272e-05  3.6405e-04  0:00:12   20
   281  3.7835e-01  4.2074e-04  2.0160e-03  2.7804e-03  0:00:13   19
   282  3.9098e-01  2.1612e-04  8.7355e-04  1.3802e-03  0:00:10   18
   283  3.8650e-01  1.3359e-04  4.0199e-04  8.0601e-04  0:00:11   17
   284  3.7563e-01  9.9372e-05  2.0743e-04  5.6389e-04  0:00:11   16
   285  3.6382e-01  8.4608e-05  1.2710e-04  4.5571e-04  0:00:09   15
   286  3.5245e-01  7.8197e-05  9.3753e-05  4.0306e-04  0:00:09   14
   287  3.4121e-01  7.4677e-05  7.9706e-05  3.7533e-04  0:00:07   13
   288  3.3043e-01  7.1986e-05  7.2343e-05  3.5794e-04  0:00:07   12
   289  3.2063e-01  6.9803e-05  6.8120e-05  3.4501e-04  0:00:08   11
   290  3.1169e-01  6.7832e-05  6.4909e-05  3.3346e-04  0:00:06   10
  iter  continuity  x-velocity  y-velocity  z-velocity     time/iter
   291  3.0291e-01  6.5923e-05  6.2825e-05  3.2457e-04  0:00:06    9
   292  2.9435e-01  6.4008e-05  6.0494e-05  3.1575e-04  0:00:04    8
   293  2.8665e-01  6.2340e-05  5.8494e-05  3.0697e-04  0:00:04    7
   294  2.7957e-01  6.0699e-05  5.7014e-05  2.9866e-04  0:00:04    6
   295  2.7227e-01  5.9025e-05  5.5576e-05  2.9124e-04  0:00:03    5
   296  2.6503e-01  5.7436e-05  5.4098e-05  2.8378e-04  0:00:03    4
   297  2.5830e-01  5.5998e-05  5.2593e-05  2.7634e-04  0:00:02    3
   298  2.5212e-01  5.4540e-05  5.1392e-05  2.6947e-04  0:00:01    2
   299  2.4583e-01  5.3185e-05  5.0285e-05  2.6319e-04  0:00:00    1
   300  2.3946e-01  5.1821e-05  4.8861e-05  2.5603e-04  0:00:00    0
Flow time = 0.1499999910593033s, time step = 15
85 more time steps

Updating solution at time level N... done.
  iter  continuity  x-velocity  y-velocity  z-velocity     time/iter
   300  2.3946e-01  5.1821e-05  4.8861e-05  2.5603e-04  0:00:12   20
   301  2.6420e-01  3.7557e-04  1.9173e-03  2.4254e-03  0:00:09   19
   302  2.7533e-01  1.8733e-04  8.2682e-04  1.1786e-03  0:00:10   18
   303  2.7438e-01  1.1056e-04  3.7495e-04  6.6270e-04  0:00:08   17
   304  2.6851e-01  7.8377e-05  1.8708e-04  4.4321e-04  0:00:09   16
   305  2.6143e-01  6.4638e-05  1.0950e-04  3.4636e-04  0:00:07   15
   306  2.5459e-01  5.8729e-05  7.7725e-05  3.0091e-04  0:00:08   14
   307  2.4775e-01  5.5701e-05  6.3681e-05  2.7704e-04  0:00:08   13
   308  2.4100e-01  5.3493e-05  5.6638e-05  2.6236e-04  0:00:06   12
   309  2.3454e-01  5.1739e-05  5.2732e-05  2.5249e-04  0:00:07   11
   310  2.2866e-01  5.0044e-05  5.0111e-05  2.4493e-04  0:00:05   10
  iter  continuity  x-velocity  y-velocity  z-velocity     time/iter
   311  2.2306e-01  4.8552e-05  4.7792e-05  2.3760e-04  0:00:05    9
   312  2.1731e-01  4.7088e-05  4.5850e-05  2.3043e-04  0:00:05    8
   313  2.1159e-01  4.5802e-05  4.4506e-05  2.2462e-04  0:00:04    7
   314  2.0639e-01  4.4475e-05  4.3180e-05  2.1886e-04  0:00:04    6
   315  2.0137e-01  4.3327e-05  4.1575e-05  2.1285e-04  0:00:03    5
   316  1.9609e-01  4.2141e-05  4.0326e-05  2.0665e-04  0:00:02    4
   317  1.9079e-01  4.1025e-05  3.9402e-05  2.0138e-04  0:00:02    3
   318  1.8586e-01  3.9858e-05  3.8493e-05  1.9637e-04  0:00:01    2
   319  1.8117e-01  3.8883e-05  3.7200e-05  1.9109e-04  0:00:01    1
   320  1.7647e-01  3.7812e-05  3.6099e-05  1.8544e-04  0:00:00    0
Flow time = 0.1599999964237213s, time step = 16
84 more time steps

Updating solution at time level N... done.
  iter  continuity  x-velocity  y-velocity  z-velocity     time/iter
   320  1.7647e-01  3.7812e-05  3.6099e-05  1.8544e-04  0:00:10   20
   321  1.9582e-01  3.4785e-04  1.8406e-03  2.1932e-03  0:00:08   19
   322  2.0440e-01  1.6849e-04  7.9153e-04  1.0437e-03  0:00:09   18
   323  2.0377e-01  9.4065e-05  3.5501e-04  5.6282e-04  0:00:11   17
   324  1.9900e-01  6.2458e-05  1.7218e-04  3.5749e-04  0:00:08   16
   325  1.9284e-01  4.9038e-05  9.6072e-05  2.6733e-04  0:00:09   15
   326  1.8673e-01  4.3469e-05  6.4235e-05  2.2503e-04  0:00:07   14
   327  1.8107e-01  4.0744e-05  5.0229e-05  2.0306e-04  0:00:08   13
   328  1.7570e-01  3.8760e-05  4.3439e-05  1.9005e-04  0:00:06   12
   329  1.7036e-01  3.7158e-05  3.9742e-05  1.8172e-04  0:00:06   11
   330  1.6529e-01  3.5783e-05  3.6876e-05  1.7466e-04  0:00:07   10
  iter  continuity  x-velocity  y-velocity  z-velocity     time/iter
   331  1.6071e-01  3.4497e-05  3.4663e-05  1.6862e-04  0:00:05    9
   332  1.5619e-01  3.3348e-05  3.3004e-05  1.6299e-04  0:00:05    8
   333  1.5162e-01  3.2273e-05  3.1828e-05  1.5823e-04  0:00:03    7
   334  1.4718e-01  3.1255e-05  3.0641e-05  1.5356e-04  0:00:04    6
   335  1.4311e-01  3.0283e-05  2.9481e-05  1.4885e-04  0:00:03    5
   336  1.3922e-01  2.9353e-05  2.8498e-05  1.4448e-04  0:00:02    4
   337  1.3532e-01  2.8482e-05  2.7678e-05  1.4031e-04  0:00:02    3
   338  1.3136e-01  2.7629e-05  2.6882e-05  1.3628e-04  0:00:01    2
   339  1.2769e-01  2.6843e-05  2.6224e-05  1.3256e-04  0:00:01    1
   340  1.2428e-01  2.6067e-05  2.5512e-05  1.2879e-04  0:00:00    0
Flow time = 0.1700000017881393s, time step = 17
83 more time steps

Updating solution at time level N... done.
  iter  continuity  x-velocity  y-velocity  z-velocity     time/iter
   340  1.2428e-01  2.6067e-05  2.5512e-05  1.2879e-04  0:00:14   20
   341  1.3895e-01  3.2564e-04  1.7677e-03  1.9991e-03  0:00:14   19
   342  1.4518e-01  1.5323e-04  7.5771e-04  9.3104e-04  0:00:11   18
   343  1.4446e-01  8.0683e-05  3.3583e-04  4.8142e-04  0:00:12   17
   344  1.4063e-01  4.9728e-05  1.5849e-04  2.8842e-04  0:00:09   16
   345  1.3577e-01  3.6465e-05  8.3861e-05  2.0279e-04  0:00:10   15
   346  1.3058e-01  3.1007e-05  5.2546e-05  1.6301e-04  0:00:10   14
   347  1.2585e-01  2.8386e-05  3.8732e-05  1.4307e-04  0:00:07   13
   348  1.2160e-01  2.6658e-05  3.2202e-05  1.3194e-04  0:00:08   12
   349  1.1763e-01  2.5334e-05  2.8648e-05  1.2462e-04  0:00:06   11
   350  1.1364e-01  2.4208e-05  2.6276e-05  1.1899e-04  0:00:06   10
  iter  continuity  x-velocity  y-velocity  z-velocity     time/iter
   351  1.0993e-01  2.3246e-05  2.4535e-05  1.1444e-04  0:00:04    9
   352  1.0645e-01  2.2381e-05  2.3110e-05  1.1040e-04  0:00:05    8
   353  1.0323e-01  2.1602e-05  2.2036e-05  1.0663e-04  0:00:05    7
   354  9.9979e-02  2.0885e-05  2.1109e-05  1.0304e-04  0:00:03    6
   355  9.6840e-02  2.0218e-05  2.0420e-05  9.9796e-05  0:00:03    5
   356  9.3829e-02  1.9559e-05  1.9716e-05  9.6704e-05  0:00:02    4
   357  9.0960e-02  1.8930e-05  1.9021e-05  9.3631e-05  0:00:02    3
   358  8.8143e-02  1.8322e-05  1.8351e-05  9.0556e-05  0:00:01    2
   359  8.5354e-02  1.7736e-05  1.7794e-05  8.7617e-05  0:00:01    1
   360  8.2666e-02  1.7156e-05  1.7216e-05  8.4871e-05  0:00:00    0
Flow time = 0.1799999922513962s, time step = 18
82 more time steps

Updating solution at time level N... done.
  iter  continuity  x-velocity  y-velocity  z-velocity     time/iter
   360  8.2666e-02  1.7156e-05  1.7216e-05  8.4871e-05  0:00:13   20
   361  9.3682e-02  3.1023e-04  1.7064e-03  1.8415e-03  0:00:13   19
   362  9.8363e-02  1.4251e-04  7.2998e-04  8.4117e-04  0:00:10   18
   363  9.7792e-02  7.0988e-05  3.2088e-04  4.1673e-04  0:00:11   17
   364  9.4543e-02  4.0188e-05  1.4803e-04  2.3388e-04  0:00:12   16
   365  9.0552e-02  2.7071e-05  7.4771e-05  1.5315e-04  0:00:09   15
   366  8.6603e-02  2.1769e-05  4.3855e-05  1.1576e-04  0:00:09   14
   367  8.2942e-02  1.9345e-05  3.0254e-05  9.7401e-05  0:00:07   13
   368  7.9667e-02  1.7818e-05  2.3821e-05  8.7632e-05  0:00:07   12
   369  7.6574e-02  1.6694e-05  2.0432e-05  8.1627e-05  0:00:05   11
   370  7.3679e-02  1.5808e-05  1.8214e-05  7.7164e-05  0:00:06   10
  iter  continuity  x-velocity  y-velocity  z-velocity     time/iter
   371  7.1017e-02  1.5062e-05  1.6665e-05  7.3512e-05  0:00:06    9
   372  6.8662e-02  1.4399e-05  1.5599e-05  7.0598e-05  0:00:04    8
   373  6.6260e-02  1.3802e-05  1.4790e-05  6.8000e-05  0:00:04    7
   374  6.3814e-02  1.3268e-05  1.4020e-05  6.5397e-05  0:00:03    6
   375  6.1503e-02  1.2769e-05  1.3325e-05  6.2830e-05  0:00:03    5
   376  5.9540e-02  1.2267e-05  1.2739e-05  6.0614e-05  0:00:03    4
   377  5.7606e-02  1.1800e-05  1.2267e-05  5.8590e-05  0:00:02    3
   378  5.5578e-02  1.1364e-05  1.1809e-05  5.6602e-05  0:00:01    2
   379  5.3109e-02  1.0965e-05  1.1259e-05  5.4304e-05  0:00:01    1
   380  5.0456e-02  1.0586e-05  1.0784e-05  5.2222e-05  0:00:00    0
Flow time = 0.1899999976158142s, time step = 19
81 more time steps

Updating solution at time level N... done.
  iter  continuity  x-velocity  y-velocity  z-velocity     time/iter
   380  5.0456e-02  1.0586e-05  1.0784e-05  5.2222e-05  0:00:12   20
   381  5.7920e-02  3.0010e-04  1.6530e-03  1.7173e-03  0:00:13   19
   382  6.0608e-02  1.3499e-04  7.0681e-04  7.7210e-04  0:00:10   18
   383  5.9584e-02  6.4010e-05  3.0912e-04  3.6761e-04  0:00:11   17
   384  5.6630e-02  3.3137e-05  1.4019e-04  1.9187e-04  0:00:11   16
   385  5.3102e-02  1.9773e-05  6.8026e-05  1.1385e-04  0:00:09   15
   386  4.9510e-02  1.4374e-05  3.7305e-05  7.7958e-05  0:00:09   14
   387  4.6129e-02  1.1998e-05  2.3719e-05  6.0388e-05  0:00:07   13
   388  4.3296e-02  1.0589e-05  1.7096e-05  5.0837e-05  0:00:07   12
   389  4.0884e-02  9.5559e-06  1.3732e-05  4.5189e-05  0:00:08   11
   390  3.8605e-02  8.7419e-06  1.1637e-05  4.1428e-05  0:00:06   10
  iter  continuity  x-velocity  y-velocity  z-velocity     time/iter
   391  3.6352e-02  8.0685e-06  1.0160e-05  3.8442e-05  0:00:06    9
   392  3.4325e-02  7.4955e-06  9.0517e-06  3.5869e-05  0:00:04    8
   393  3.2608e-02  6.9908e-06  8.2116e-06  3.3628e-05  0:00:04    7
   394  3.0993e-02  6.5501e-06  7.5454e-06  3.1761e-05  0:00:04    6
   395  2.9328e-02  6.1564e-06  6.9948e-06  3.0084e-05  0:00:03    5
   396  2.7696e-02  5.8056e-06  6.5169e-06  2.8425e-05  0:00:03    4
   397  2.6279e-02  5.4710e-06  6.0412e-06  2.6661e-05  0:00:02    3
   398  2.5000e-02  5.1671e-06  5.6639e-06  2.5174e-05  0:00:01    2
   399  2.3698e-02  4.8893e-06  5.3321e-06  2.3883e-05  0:00:00    1
   400  2.2384e-02  4.6279e-06  5.0276e-06  2.2618e-05  0:00:00    0
Flow time = 0.199999988079071s, time step = 20
80 more time steps

Updating solution at time level N... done.
  iter  continuity  x-velocity  y-velocity  z-velocity     time/iter
   400  2.2384e-02  4.6279e-06  5.0276e-06  2.2618e-05  0:00:12   20
   401  2.8064e-02  2.9372e-04  1.6061e-03  1.6227e-03  0:00:09   19
   402  3.0477e-02  1.3007e-04  6.8697e-04  7.2082e-04  0:00:10   18
   403  3.0303e-02  5.9048e-05  2.9972e-04  3.3133e-04  0:00:08   17
   404  2.8283e-02  2.7978e-05  1.3447e-04  1.6089e-04  0:00:09   16
   405  2.5857e-02  1.4584e-05  6.3329e-05  8.5232e-05  0:00:07   15
   406  2.3556e-02  9.2315e-06  3.2825e-05  5.0872e-05  0:00:08   14
   407  2.1489e-02  6.9898e-06  1.9280e-05  3.4680e-05  0:00:08   13
   408  1.9712e-02  5.7583e-06  1.2805e-05  2.6517e-05  0:00:06   12
   409  1.8236e-02  4.9210e-06  9.4597e-06  2.2030e-05  0:00:07   11
   410  1.7020e-02  4.3071e-06  7.4662e-06  1.9249e-05  0:00:05   10
  iter  continuity  x-velocity  y-velocity  z-velocity     time/iter
   411  1.5904e-02  3.8388e-06  6.1394e-06  1.7318e-05  0:00:05    9
   412  1.4905e-02  3.4703e-06  5.2087e-06  1.5871e-05  0:00:05    8
   413  1.4001e-02  3.1726e-06  4.5487e-06  1.4691e-05  0:00:04    7
   414  1.3225e-02  2.9323e-06  4.0698e-06  1.3714e-05  0:00:04    6
   415  1.2478e-02  2.7325e-06  3.7018e-06  1.2887e-05  0:00:03    5
   416  1.1762e-02  2.5557e-06  3.4082e-06  1.2143e-05  0:00:02    4
   417  1.1099e-02  2.4016e-06  3.1766e-06  1.1446e-05  0:00:02    3
   418  1.0505e-02  2.2663e-06  3.0105e-06  1.0816e-05  0:00:01    2
Done.

The application is busy.
Please wait a moment.

Calculation complete.
(cx-gui-do cx-activate-item "Information*OK")
(cx-gui-do cx-activate-item "MenuBar*WriteSubMenu*Stop Transcript")